*HEADING
Plate Analysis
*NODE
1, 0.0, 0.0, 0.0
2, 100.0, 0.0, 0.0
3, 100.0, 200.0, 0.0
4, 0.0, 200.0, 0.0
5, 60.0, 100.0, 0.0
6, 50.0, 110.0, 0.0
7, 40.0, 100.0, 0.0
8, 50.0, 90.0, 0.0
9, 2.499999999990279, 0.0, 0.0
10, 4.999999999979755, 0.0, 0.0
11, 7.499999999970311, 0.0, 0.0
12, 9.999999999961581, 0.0, 0.0
13, 12.49999999995293, 0.0, 0.0
14, 14.99999999994008, 0.0, 0.0
15, 17.49999999992711, 0.0, 0.0
16, 19.99999999991413, 0.0, 0.0
17, 22.49999999990133, 0.0, 0.0
18, 24.99999999988819, 0.0, 0.0
19, 27.49999999987507, 0.0, 0.0
20, 29.99999999986224, 0.0, 0.0
** ... 14364 like lines cut
*ELEMENT, TYPE=S8, ELSET=EALL
1, 1217, 1359, 1363, 1362, 3937, 3938, 3939, 3940
2, 1359, 1276, 1360, 1363, 3942, 3943, 3944, 3938
3, 1363, 1360, 1297, 1361, 3944, 3946, 3947, 3948
4, 1362, 1363, 1361, 1269, 3939, 3948, 3950, 3951
5, 1211, 1364, 1368, 1367, 3953, 3954, 3955, 3956
6, 1364, 1267, 1365, 1368, 3958, 3959, 3960, 3954
7, 1368, 1365, 1303, 1366, 3960, 3962, 3963, 3964
8, 1367, 1368, 1366, 1256, 3955, 3964, 3966, 3967
9, 1240, 1369, 1373, 1372, 3969, 3970, 3971, 3972
10, 1369, 1190, 1370, 1373, 3974, 3975, 3976, 3970
11, 1373, 1370, 1256, 1371, 3976, 3978, 3979, 3980
12, 1372, 1373, 1371, 1304, 3971, 3980, 3982, 3983
13, 1167, 1374, 1377, 1376, 3985, 3986, 3987, 3988
14, 1374, 1217, 1362, 1377, 3990, 3940, 3991, 3986
15, 1377, 1362, 1269, 1375, 3991, 3951, 3993, 3994
16, 1376, 1377, 1375, 1162, 3987, 3994, 3996, 3997
17, 1149, 1378, 1382, 1381, 3999, 4000, 4001, 4002
18, 1378, 1195, 1379, 1382, 4004, 4005, 4006, 4000
19, 1382, 1379, 1041, 1380, 4006, 4008, 4009, 4010
20, 1381, 1382, 1380, 1048, 4001, 4010, 4012, 4013
** ... 3508 like lines cut
*MATERIAL, NAME=MAT1
*ELASTIC
72400.0, 0.33
*SHELL SECTION, ELSET=EALL, MATERIAL=MAT1
2.0
*BOUNDARY
*STEP
*STATIC
*CLOAD
*NODE FILE
U, S
*END STEP
